*Heading
** Job name: Job-1 Model name: CubicElement-Radial_VUMAT_D
** Generated by: Abaqus/CAE 2021
*Preprint, echo=NO, model=NO, history=NO, contact=NO
**
** PARTS
**
*Part, name=CUBIC
*Node
      1,          10.,          10.,          10.
      2,          10.,           0.,          10.
      3,          10.,          10.,           0.
      4,          10.,           0.,           0.
      5,           0.,          10.,          10.
      6,           0.,           0.,          10.
      7,           0.,          10.,           0.
      8,           0.,           0.,           0.
*Element, type=C3D8R
1, 5, 6, 8, 7, 1, 2, 4, 3
*Nset, nset=SET-1, generate
 1,  8,  1
*Elset, elset=SET-1
 1,
** Section: Section-1-SET-1
*Solid Section, elset=SET-1, material=GDSGZ-PMMA_1
,
*End Part
**  
**
** ASSEMBLY
**
*Assembly, name=Assembly
**  
*Instance, name=CUBIC-1, part=CUBIC
*End Instance
**  
*Nset, nset=SET-2, instance=CUBIC-1, generate
 2,  8,  2
*Elset, elset=SET-2, instance=CUBIC-1
 1,
*Nset, nset=SET-3, instance=CUBIC-1, generate
 1,  7,  2
*Elset, elset=SET-3, instance=CUBIC-1
 1,
*End Assembly
*Amplitude, name=AMP-1
             0.,              0.,            500.,              1.
** 
** MATERIALS
** 
*Material, name=GDSGZ-PMMA_1
*Conductivity
 0.21,
*Density
 1.186e-09,
*Depvar
      7,
*Specific Heat
 1.466e+09,
*User Material, constants=15
2870.,      0.38,       3.9,        0.,      1.91,      1.49,    0.0029,       11.
     1191.,      11.7,     0.064,       0.9, 1.186e-09, 1.466e+09,        0.
** 
** PHYSICAL CONSTANTS
** 
*Physical Constants, absolute zero=0.
** 
** PREDEFINED FIELDS
** 
** Name: Field-1   Type: Temperature
*Initial Conditions, type=TEMPERATURE
CUBIC-1.SET-1, 300.
** ----------------------------------------------------------------
** 
** STEP: Step-1
** 
*Step, name=Step-1, nlgeom=YES
*Dynamic, Explicit
, 500.
*Bulk Viscosity
0.06, 1.2
** 
** BOUNDARY CONDITIONS
** 
** Name: Disp-BC-1 Type: Displacement/Rotation
*Boundary
SET-2, 2, 2
** Name: Disp-BC-2 Type: Displacement/Rotation
*Boundary, amplitude=AMP-1
SET-3, 2, 2, -5.
** 
** OUTPUT REQUESTS
** 
*Restart, write, overlay, number interval=1, time marks=YES
** 
** FIELD OUTPUT: F-Output-1
** 
*Output, field, number interval=100, time marks=YES
*Node Output
A, RF, U, V
** 
** FIELD OUTPUT: F-Output-2
** 
*Contact Output
CSTRESS, 
** 
** FIELD OUTPUT: F-Output-3
** 
*Element Output, directions=YES
DENSITY, ER, ERV, LE, PE, PEEQ, S, SDV, TEMP
** 
** HISTORY OUTPUT: H-Output-1
** 
*Output, history, variable=PRESELECT, time interval=5.
** 
** HISTORY OUTPUT: H-Output-2
** 
*Output, history, time interval=5.
*Element Output, elset=CUBIC-1.SET-1
DENSITY, INV3, LE11, LE12, LE13, LE22, LE23, LE33, LEP, MISES, PRESS, S11, S12, S13, S22, S23
S33, SDV, SP, TEMP, TRESC
** 
** HISTORY OUTPUT: H-Output-3
** 
*Output, history, time interval=5.
*Incrementation Output
DT,
*End Step
